LAMMPS (23 Jun 2022 - Update 3)
###
#Box and units
###
units lj          #use dimensionless LJ units
atom_style angle  #atoms with bonds and Angles
boundary m m m # formerly m m m

###
# Pair interactions require lists of neighbours to be calculated
###
neighbor 1.9 bin
# amogus used to only really work for 1.9
# but now it works at 1.6 too... EEENG! wrong worked for these because of the
# high bending cost meaning pairwise stuff never comes up, the relevance of the pairwise
# stuff means we have to make the bin size decently large
neigh_modify every 1 delay 1 check yes

###
# READ configuration data file
###
read_data config.branch
Reading data file ...
  orthogonal box = (-128 -128 -128) to (128 128 128)
  reading atoms ...
  320 atoms
  scanning bonds ...
  scanning angles ...
  reading bonds ...
  319 bonds
  reading angles ...
  319 angles
Finding 1-2 1-3 1-4 neighbors ...
     3 = max # of 1-2 neighbors
     3 = max # of 1-3 neighbors
     6 = max # of 1-4 neighbors
     9 = max # of special neighbors

###
# Dump configurations of relaxation
###
dump dum1 all custom 10000 dump.everything id type x y z
dump_modify dum1  sort id
# every 10000 time steps, each atom's id, type, x,y,z coords and x,y,z are output.

###
# Set up interactions - start with 'soft' potentials
###

## angles
angle_style  cosine
angle_coeff   1  4 # the stiffer polymer
angle_coeff   2  2 # the less stiff chain

## Between bonded atoms
bond_style   harmonic
# For style harmonic, specify:
#   * bond type
#   * K (energy/distance^2)
#   * R0 (distance)
bond_coeff   1   90.0   0.946

## Between non-bonded atoms
pair_style     soft 1.12246152962189
#  pair_coeff for soft, specify 3:
#    * atom type interacting with
#    * atom type
#    * energy
#    * cutoff
pair_coeff 1 1  1.0 1.12246152962189 # polymer polymer pairs
pair_coeff 1 2  1.0 1.12246152962189 # tether polymer pairs
pair_coeff 2 2  1.0 1.12246152962189 # tether tether pairs

###
# Set up fixes and velocities
###

variable seed equal 333697     # a seed for the thermostat

variable finalID equal count(all) # find the ID of the tether latch
group fixonepoint id < 320
319 atoms in group fixonepoint
velocity all zero linear   #0 velocity initially
fix 1 fixonepoint nve                             # NVE integrator
fix 2 all langevin   1.0 1.0 1.0 333697

variable planez equal "zhi-0.99"
region myplane plane 0.0 0.0 127.01 0.0 0.0 -1.0
fix bendywall all wall/region myplane lj126 1.0 1.0 1.12246152962189

##### Output thermodynamic info  (temperature, energy, pressure, etc.) #####
thermo 10000
thermo_style   custom   step  temp  epair  emol pe ke etotal  press  vol
############################################################################

##### Output thermodynamic info to file  ###################################
variable t equal step
variable mytemp equal temp
variable myepair equal epair
############################################################################

# Definining groups for the tether and the polymer
group polymer type  1 1
256 atoms in group polymer
group tether  type  2 2
64 atoms in group tether

############################################################################
#### Set up a compute for R_g
compute myRG2compute polymer gyration
#### and write it to a file
variable RG2 equal c_myRG2compute
############################################################################

###
#Incremenet COMM cutoff since they get quite pesky about it and it leads to
#issues like atoms not communicating properly when stretched
###
comm_style tiled
comm_modify cutoff 3.55
fix megabalancatron all balance 50000 1.25 rcb

###
# set timestep of integrator
###
timestep 0.01

#balance 1.25 rcb

###
# run integration for a number of steps to equilibrate with soft potnentials
###

# run 100000

###
# Now switch to LJ potential and FENE bonds
###

## Between bonded atoms
bond_style   fene
special_bonds fene #<=== I M P O R T A N T prevents LJ from being counted twice
Finding 1-2 1-3 1-4 neighbors ...
     3 = max # of 1-2 neighbors
     9 = max # of special neighbors
# For style FENE, specify:
#   * bond type
#   * K (energy/distance^2)
#   * R0 (distance)
#   * epsilon
#   * sigma
bond_coeff   1    50.0   1.6   1.0   1.0

## Between non-bonded atoms
pair_style      lj/cut 1.12246152962189
pair_modify shift yes        # option to ensure energy is calculated corectly
#  pair_coeff for LJ, specify 4:
#    * atom type interacting with
#    * atom type
#    * energy - again set to 0 to allow overlaps
#    * mean diameter of the two atom types
#    * cutoff
pair_coeff      1 1 1.0 1.0 1.12246152962189 #polypoly
pair_coeff      1 2 1.0 1.0 1.12246152962189 #polytether
pair_coeff      2 2 1.0 1.0 1.12246152962189 #tethertether

#brief stint under new potentials to allow it to relax under them
run 600000
Generated 0 of 1 mixed pair_coeff terms from geometric mixing rule
  update every 1 steps, delay 1 steps, check yes
Step          Temp          E_pair         E_mol          PotEng         KinEng         TotEng         Press          Volume
0   0              0              30.697878      30.697878      0              30.697878     -8.5655312e-05  16777216
Averages over the last 31 of 61 rows, steps 300000 to 600000:
Temp E_pair E_mol PotEng KinEng TotEng Press Volume
0.989903 0.00117018 32.0371 32.0383 1.48021 33.5185 -1.3053e-06 1.67772e+07
Loop time of 107.572 on 4 procs for 600000 steps with 320 atoms

###
# now do a longer run with the FENE LJ potentials, relaxed in every possible way, expect to catch a lot of oscillation
# this also makes the dump we'll actually use for data analysis
###

run 100000
Generated 0 of 1 mixed pair_coeff terms from geometric mixing rule
Step          Temp          E_pair         E_mol          PotEng         KinEng         TotEng         Press          Volume
600000   0.92928388     0.0012308486   32.03168       32.03291       1.3895698      33.42248      -6.3311558e-06  16777216
Averages over the last 6 of 11 rows, steps 650000 to 700000:
Temp E_pair E_mol PotEng KinEng TotEng Press Volume
1.00255 0.000933965 32.109 32.1099 1.49913 33.6091 -5.40855e-06 1.67772e+07
Loop time of 18.61 on 4 procs for 100000 steps with 320 atoms

print "All done :)"
All done :)
